BEGIN OPTIONS
  BUDGET FILEOUT ../e39d1d99-f4af-4870-8895-9251ad1391a1/flow.cbc
  HEAD FILEOUT ../e39d1d99-f4af-4870-8895-9251ad1391a1/flow.hds
END OPTIONS

BEGIN PERIOD 1
  PRINT BUDGET ALL
  PRINT HEAD ALL
  SAVE BUDGET ALL
  SAVE HEAD ALL
END PERIOD
