BEGIN DIMENSIONS
  NCELLS 31831
END DIMENSIONS

BEGIN GRIDDATA
  IZONE
    OPEN/CLOSE ../f3f11135-e3e2-48cd-b3fc-fc855b490609/model.zon_IZONE_1.txt FACTOR 1
END GRIDDATA
