BEGIN DIMENSIONS
  NCELLS 31831
END DIMENSIONS

BEGIN GRIDDATA
  IZONE
    OPEN/CLOSE flow_input/flow.zon_IZONE_1.txt FACTOR 1
END GRIDDATA
