BEGIN OPTIONS
  AUXILIARY CELLGRP
  BOUNDNAMES
  PRINT_INPUT
  PRINT_FLOWS
  SAVE_FLOWS
END OPTIONS

BEGIN DIMENSIONS
  MAXBOUND 6
END DIMENSIONS

BEGIN PERIOD 1
  OPEN/CLOSE ../6e29edf7-547f-4bef-ba5a-917b094a54ca/tmp5jkf02rn
END PERIOD
