# File generated by Flopy version 3.3.6 on 09/04/2023 at 13:10:53.
BEGIN GRIDDATA
  strt
    OPEN/CLOSE  'flow_input/flow.ic_STRT_1.txt'  FACTOR  1.0
END GRIDDATA

