# File generated by Flopy version 3.3.6 on 09/04/2023 at 14:49:07.
BEGIN OPTIONS
END OPTIONS

BEGIN TIMING
  TDIS6  sim.tdis
END TIMING

BEGIN MODELS
  gwf6  flow.nam  flow
END MODELS

BEGIN EXCHANGES
END EXCHANGES

BEGIN SOLUTIONGROUP  1
  MXITER  1
  ims6  sim.ims  flow
END SOLUTIONGROUP  1

