# File generated by Flopy version 3.3.6 on 09/06/2023 at 12:37:31.
BEGIN OPTIONS
END OPTIONS

BEGIN TIMING
  TDIS6  sim.tdis
END TIMING

BEGIN MODELS
  gwf6  flow.nam  flow
END MODELS

BEGIN EXCHANGES
END EXCHANGES

BEGIN SOLUTIONGROUP  1
  MXITER  1
  ims6  sim.ims  flow
END SOLUTIONGROUP  1

