# File generated by Flopy version 3.3.6 on 09/04/2023 at 13:10:53.
BEGIN OPTIONS
  SAVE_FLOWS
END OPTIONS

BEGIN GRIDDATA
  iconvert
    CONSTANT  1
  ss
    CONSTANT  1.00000000E-04
  sy
    CONSTANT       0.01000000
END GRIDDATA

BEGIN PERIOD  1
  TRANSIENT
END PERIOD  1

BEGIN PERIOD  2
  TRANSIENT
END PERIOD  2

BEGIN PERIOD  3
  TRANSIENT
END PERIOD  3

BEGIN PERIOD  4
  TRANSIENT
END PERIOD  4

BEGIN PERIOD  5
  TRANSIENT
END PERIOD  5

BEGIN PERIOD  6
  TRANSIENT
END PERIOD  6

