# File generated by Flopy version 3.3.6 on 09/04/2023 at 09:47:58.
BEGIN OPTIONS
  SAVE_FLOWS
  SAVE_SPECIFIC_DISCHARGE
  K33OVERK
END OPTIONS

BEGIN GRIDDATA
  icelltype
    OPEN/CLOSE  'flow_input/flow.npf_ICELLTYPE_1.txt'  FACTOR  1
  k
    OPEN/CLOSE  'flow_input/flow.npf_K_1.txt'  FACTOR  1.0
  k33
    OPEN/CLOSE  'flow_input/flow.npf_K33_1.txt'  FACTOR  1.0
  wetdry
    CONSTANT      -1.00000000
END GRIDDATA

