# File generated by Flopy version 3.3.6 on 09/06/2023 at 12:37:38.
BEGIN OPTIONS
  AUXILIARY  cellgrp
  BOUNDNAMES
  PRINT_INPUT
  PRINT_FLOWS
  SAVE_FLOWS
END OPTIONS

BEGIN DIMENSIONS
  MAXBOUND  610
END DIMENSIONS

BEGIN PERIOD  1
    OPEN/CLOSE  'flow_input/flow.wel_1.txt'
END PERIOD  1

