# File generated by Flopy version 3.3.6 on 09/04/2023 at 10:28:18.
BEGIN OPTIONS
  TIME_UNITS  days
END OPTIONS

BEGIN DIMENSIONS
  NPER  6
END DIMENSIONS

BEGIN PERIODDATA
       1.00000000  1       1.00000000
       1.00000000  1       1.00000000
       1.00000000  1       1.00000000
       1.00000000  1       1.00000000
       1.00000000  1       1.00000000
       1.00000000  1       1.00000000
END PERIODDATA

