BEGIN OPTIONS
END OPTIONS

BEGIN GRIDDATA
  STRT
    OPEN/CLOSE ../5a793414-5636-4fea-a6bb-c4d71b5874da/model.ic_STRT_1.txt FACTOR 1.0
END GRIDDATA
