BEGIN OPTIONS
  SAVE_FLOWS
  K33OVERK
END OPTIONS

BEGIN GRIDDATA
  ICELLTYPE
    OPEN/CLOSE ../0e05d06a-b4aa-4dc1-b9ce-67089f02c833/model.npf_ICELLTYPE_1.txt FACTOR 1
  K
    OPEN/CLOSE ../0e05d06a-b4aa-4dc1-b9ce-67089f02c833/model.npf_K_1.txt FACTOR 1.0
  K33
    OPEN/CLOSE ../0e05d06a-b4aa-4dc1-b9ce-67089f02c833/model.npf_K33_1.txt FACTOR 1.0
  WETDRY
    CONSTANT -1.0
END GRIDDATA
