# File generated by Flopy version 3.3.6 on 09/04/2023 at 09:47:52.
BEGIN OPTIONS
  LIST  flow_output/model.lst
  PRINT_INPUT
  PRINT_FLOWS
  SAVE_FLOWS
  NEWTON
END OPTIONS

BEGIN PACKAGES
  disu6  flow.disu  disu
  npf6  flow.npf  npf
  ic6  flow.ic  ic
  chd6  flow.chd  chd
  oc6  flow.oc  oc
  rch6  flow.rch  rch
  riv6  flow.riv  riv
  wel6  flow.wel  wel
  sto6  flow.sto  sto
END PACKAGES

