#GMS MODFLOW Simulation
#16 February 2023
FREE CONVERGE
HDF5 1.0 -1 "NeckartalCalib_try.h5" "Arrays/ibound1" 1 0 28644
HDF5 1.0 -1 "NeckartalCalib_try.h5" "Arrays/ibound2" 1 0 28644
HDF5 1.0 -1 "NeckartalCalib_try.h5" "Arrays/ibound3" 1 0 28644
-999.0
HDF5 1.0 -1 "NeckartalCalib_try.h5" "Arrays/StartHead1" 1 0 28644
HDF5 1.0 -1 "NeckartalCalib_try.h5" "Arrays/StartHead2" 1 0 28644
HDF5 1.0 -1 "NeckartalCalib_try.h5" "Arrays/StartHead3" 1 0 28644
