# File generated by Flopy version 3.3.6 on 09/04/2023 at 09:47:58.
BEGIN OPTIONS
  BUDGET  FILEOUT  flow_output/flow.cbc
  HEAD  FILEOUT  flow_output/flow.hds
END OPTIONS

BEGIN PERIOD  1
  SAVE  budget  all
  SAVE  head  all
  PRINT  budget  all
  PRINT  head  all
END PERIOD  1

