# 10 X 10 X 1 grid, same as the dis file

BEGIN OPTIONS
  LENGTH_UNITS METERS
END OPTIONS

BEGIN DIMENSIONS
  NODES 31831
  NJA 198261
  NVERT 11430
END DIMENSIONS

BEGIN GRIDDATA
  TOP
    OPEN/CLOSE ../13303f9d-e185-4353-b50f-3ac4a61a897a/model.disu_TOP_1.txt FACTOR 1.0
  BOT
    OPEN/CLOSE ../13303f9d-e185-4353-b50f-3ac4a61a897a/model.disu_BOT_1.txt FACTOR 1.0
  AREA
    OPEN/CLOSE ../13303f9d-e185-4353-b50f-3ac4a61a897a/model.disu_AREA_1.txt FACTOR 1.0
  IDOMAIN
    OPEN/CLOSE ../13303f9d-e185-4353-b50f-3ac4a61a897a/model.disu_IDOMAIN_1.txt FACTOR 1
END GRIDDATA

BEGIN CONNECTIONDATA
  IAC
    OPEN/CLOSE ../13303f9d-e185-4353-b50f-3ac4a61a897a/model.disu_IAC_1.txt FACTOR 1
  JA
    OPEN/CLOSE ../13303f9d-e185-4353-b50f-3ac4a61a897a/model.disu_JA_1.txt FACTOR 1
  IHC
    OPEN/CLOSE ../13303f9d-e185-4353-b50f-3ac4a61a897a/model.disu_IHC_1.txt FACTOR 1
  CL12
    OPEN/CLOSE ../13303f9d-e185-4353-b50f-3ac4a61a897a/model.disu_CL12_1.txt FACTOR 1.0
  HWVA
    OPEN/CLOSE ../13303f9d-e185-4353-b50f-3ac4a61a897a/model.disu_HWVA_1.txt FACTOR 1.0
  ANGLDEGX
    OPEN/CLOSE ../13303f9d-e185-4353-b50f-3ac4a61a897a/model.disu_ANGLDEGX_1.txt FACTOR 1.0
END CONNECTIONDATA

BEGIN VERTICES
  OPEN/CLOSE ../13303f9d-e185-4353-b50f-3ac4a61a897a/model.disu_VERTICES.txt
END VERTICES

BEGIN CELL2D
  OPEN/CLOSE ../13303f9d-e185-4353-b50f-3ac4a61a897a/model.disu_CELL2D.txt
END CELL2D
