BEGIN OPTIONS
END OPTIONS

BEGIN TIMING
  TDIS6 ../62136be3-ac3e-467d-85a1-38fd38345ec1/model.tdis
END TIMING

BEGIN MODELS
  GWF6 ../ddf97c19-7928-4ad3-ae1b-ca8f35dc7c03/model.nam flow
END MODELS

BEGIN EXCHANGES
END EXCHANGES

BEGIN SOLUTIONGROUP 1
  MXITER 1
  IMS6 ../2fa40fb9-ecb0-41d5-9b99-7601a9b84cda/model.ims flow
END SOLUTIONGROUP
