BEGIN OPTIONS
  AUXILIARY CELLGRP
  BOUNDNAMES
  PRINT_INPUT
  PRINT_FLOWS
  SAVE_FLOWS
END OPTIONS

BEGIN DIMENSIONS
  MAXBOUND 610
END DIMENSIONS

BEGIN PERIOD 1
  OPEN/CLOSE ../fc8debda-63d2-43f7-ba80-76f52ec08cec/tmp2e_ceeb3
END PERIOD
