BEGIN OPTIONS
  COMPLEXITY COMPLEX
  NO_PTC ALL
END OPTIONS

BEGIN NONLINEAR
  OUTER_DVCLOSE 0.1
END NONLINEAR
