BEGIN OPTIONS
  AUXILIARY CELLGRP
  BOUNDNAMES
  PRINT_INPUT
  PRINT_FLOWS
  SAVE_FLOWS
END OPTIONS

BEGIN DIMENSIONS
  MAXBOUND 686
END DIMENSIONS

BEGIN PERIOD 1
  OPEN/CLOSE ../89f8e372-e12a-4691-a450-49db8460a2ed/tmpyj0rqz_s
END PERIOD
