BEGIN OPTIONS
  PRINT_INPUT
  PRINT_FLOWS
  SAVE_FLOWS
END OPTIONS

BEGIN DIMENSIONS
  MAXBOUND 10182
END DIMENSIONS

BEGIN PERIOD 1
END PERIOD
