{"SIM_UUID":"44742a08-0a7a-48c1-91a2-5c7ab8687b42","SOLUTION_FILE_FULL":"C:\\Python\\Parallel Processing\\Irregular Griddy\\NeckartalModel1718\\NeckartalCalib_try_models\\MODFLOW 6\\sim\\flow_output\\flow.cbc","SOLUTION_FILE_RELATIVE":"../../../NeckartalCalib_try_models/MODFLOW 6/sim/flow_output/flow.cbc"}