# File generated by Flopy version 3.3.6 on 09/04/2023 at 09:47:52.
BEGIN OPTIONS
  COMPLEXITY  complex
  NO_PTC  all
END OPTIONS

BEGIN NONLINEAR
  OUTER_DVCLOSE       0.10000000
END NONLINEAR

